ipss.test.plugin.core/testData/psse/V32/aeso/2013_WNP.raw
0,   100.00, 33, 0, 1, 60.00     / PSS(R)E-33.4    THU, JUN 27 2013   0:36
TASMO MODEL; OUTPUT GENERATED 2012-09-11 17:26:40
SWINGBUS 1520 FOR 2012LPBL-1:2012-12-01:1:833--1-0-0-0
     1,'JUDY515S    ',  69.0000,1,  26,  99,  17,1.05325, -16.8513,1.10000,0.90000,1.10000,0.90000
     2,'MAYERTH     ', 138.0000,1,  40,  99,  17,1.01686, -14.8053,1.10000,0.90000,1.10000,0.90000
     3,'COLINTO7    ', 138.0000,1,  27,  99,  17,1.01111, -19.0726,1.10000,0.90000,1.10000,0.90000
     4,'WESTLOC7    ', 138.0000,1,  27,  99,  17,1.01010, -15.8898,1.10000,0.90000,1.10000,0.90000
     5,'CLYDE  7    ', 138.0000,1,  27,  99,  17,1.00612, -16.7579,1.10000,0.90000,1.10000,0.90000
     6,'DICKSOA9    ',   4.1600,1,  39,  99,   7,1.03266, -22.6144,1.10000,0.90000,1.10000,0.90000
     7,'BOYLE  7    ', 138.0000,1,  27,  99,  17,1.02409, -19.7547,1.10000,0.90000,1.10000,0.90000
     8,'WHI 3647    ', 138.0000,1,  26,  99,  17,1.02436, -15.1271,1.10000,0.90000,1.10000,0.90000
     9,'WHITECO7    ', 138.0000,1,  26,  99,  17,1.02582, -15.4243,1.10000,0.90000,1.10000,0.90000
    10,'WHITECO8    ',  69.0000,1,  26,  99,  17,1.05102, -14.5381,1.10000,0.90000,1.10000,0.90000
    11,'JUDY CR8    ',  69.0000,1,  26,  99,  17,1.05352, -16.8493,1.10000,0.90000,1.10000,0.90000
    12,'FOX CREE    ', 138.0000,1,  24,  99,  17,1.03080, -16.7074,1.10000,0.90000,1.10000,0.90000
    13,'KAYBOB 7    ', 138.0000,1,  24,  99,  17,1.01839, -16.3800,1.10000,0.90000,1.10000,0.90000
    14,'WESGEN 9    ',  13.8000,2,  27,  99,   4,1.02500, -12.2126,1.10000,0.90000,1.10000,0.90000
    15,'MTN COA7    ', 138.0000,1,  29,  99,  17,1.03598, -14.9561,1.10000,0.90000,1.10000,0.90000
    16,'FLATBUS7    ', 138.0000,1,  27,  99,  17,1.01667, -15.3480,1.10000,0.90000,1.10000,0.90000
    17,'COLD CR7    ', 138.0000,1,  29,  99,  17,1.04031, -15.4532,1.10000,0.90000,1.10000,0.90000
    18,'GULF RO7    ', 138.0000,1,  29,  99,  17,1.01948, -14.2393,1.10000,0.90000,1.10000,0.90000
    19,'WESGEN T    ', 138.0000,1,  27,  99,  17,1.01866, -15.2222,1.10000,0.90000,1.10000,0.90000
    20,'EDSON  7    ', 138.0000,1,  29,  99,  17,1.02573, -13.7612,1.10000,0.90000,1.10000,0.90000
    21,'WESGEN 7    ', 138.0000,1,  27,  99,   4,1.02169, -14.8863,1.10000,0.90000,1.10000,0.90000
    26,'ENTWIST7    ', 138.0000,1,  40,  99,  17,1.01379, -14.2319,1.10000,0.90000,1.10000,0.90000
    27,'WABAMUN8    ',  69.0000,1,  40,  99,  17,1.01675, -12.1905,1.10000,0.90000,1.10000,0.90000
    31,'FINCAST7    ', 138.0000,1,  52,  99,  17,1.01001, -22.5937,1.10000,0.90000,1.10000,0.90000
    32,'ONOWAY 8    ',  69.0000,1,  40,  99,  17,1.01733, -12.2194,1.10000,0.90000,1.10000,0.90000
    33,'BRAZEAA9    ',  13.2000,2,  30,  99,  17,1.01902, -15.7394,1.10000,0.90000,1.10000,0.90000
    35,'LODGEPO7    ', 138.0000,1,  30,  99,  17,1.01518, -15.1156,1.10000,0.90000,1.10000,0.90000
    36,'BRAZEAU7    ', 138.0000,1,  30,  99,  17,1.02492, -14.6547,1.10000,0.90000,1.10000,0.90000
    37,'HRT EXP7    ', 138.0000,1,  32,  99,  25,1.02495, -17.6375,1.10000,0.90000,1.10000,0.90000
    38,'BRAZ OUT    ', 138.0000,1,  30,  99,  17,1.02395, -15.2711,1.10000,0.90000,1.10000,0.90000
    39,'CYNTHIA7    ', 138.0000,1,  30,  99,  17,1.02361, -15.7795,1.10000,0.90000,1.10000,0.90000
    40,'N CALDE7    ', 138.0000,1,  60,  99,  17,1.00513, -16.0068,1.10000,0.90000,1.10000,0.90000
    41,'N BARRH7    ', 138.0000,1,  40,  99,  17,1.02636, -13.8574,1.10000,0.90000,1.10000,0.90000
    42,'AMOCO BR    ', 138.0000,1,  30,  99,  17,1.02638, -16.2551,1.10000,0.90000,1.10000,0.90000
    43,'SCOTF_4     ', 138.0000,2,  33,  99,  29,1.01152, -15.0345,1.10000,0.90000,1.10000,0.90000
    44,'FT ASBN7    ', 138.0000,1,  40,  99,  17,1.03097, -15.1000,1.10000,0.90000,1.10000,0.90000
    47,'SHERWOO7    ', 138.0000,1,  60,  99,  17,1.00565, -16.0460,1.10000,0.90000,1.10000,0.90000
    48,'DIAM SH7    ', 138.0000,1,  33,  99,  17,1.01199, -15.0006,1.10000,0.90000,1.10000,0.90000
    49,'KEYSTON7    ', 138.0000,1,  30,  99,  17,1.01855, -10.8082,1.10000,0.90000,1.10000,0.90000
    50,'RIVERSID    ', 138.0000,2,  33,  99, 211,1.01173, -15.1961,1.10000,0.90000,1.10000,0.90000
    51,'W PEMBI7    ', 138.0000,1,  30,  99,  17,1.02457, -16.2270,1.10000,0.90000,1.10000,0.90000
    52,'BLUERIDG    ', 138.0000,1,  26,  99,  17,1.01894, -15.1776,1.10000,0.90000,1.10000,0.90000
    53,'SANDYPT7    ', 138.0000,1,  48,  99,  17,1.02514, -16.8365,1.10000,0.90000,1.10000,0.90000
    55,'GULF OI7    ', 138.0000,1,  60,  99,  17,1.01389, -15.8659,1.10000,0.90000,1.10000,0.90000
    56,'IPPL ED7    ', 138.0000,1,  60,  99,  17,1.01471, -15.8317,1.10000,0.90000,1.10000,0.90000
    57,'LAMOURE4    ', 240.0000,1,  33,  99,  17,1.05238, -13.9688,1.10000,0.90000,1.10000,0.90000
    58,'FORT SA7    ', 138.0000,1,  60,  99,  17,1.01279, -15.1543,1.10000,0.90000,1.10000,0.90000
    59,'REDWATE7    ', 138.0000,1,  33,  99,  17,1.00358, -15.6308,1.10000,0.90000,1.10000,0.90000
    60,'BEAMER 7    ', 138.0000,1,  33,  99,  17,1.00801, -15.3115,1.10000,0.90000,1.10000,0.90000
    61,'UN CARB9    ', 138.0000,2,  33,  99, 191,1.01809, -14.9191,1.10000,0.90000,1.10000,0.90000
    62,'SHERRIT7    ', 138.0000,1,  33,  99,  17,1.01348, -15.1176,1.10000,0.90000,1.10000,0.90000
    63,'LAMOURE7    ', 138.0000,1,  33,  99,  17,1.01627, -14.9412,1.10000,0.90000,1.10000,0.90000
    64,'BANFF  7    ', 138.0000,1,  44,  99,  17,1.00449, -26.3661,1.10000,0.90000,1.10000,0.90000
    65,'BARDO  7    ', 138.0000,1,  31,  99,  17,0.98957, -16.9788,1.10000,0.90000,1.10000,0.90000
    66,'IOL 737L    ', 138.0000,1,  60,  99,  17,1.01309, -15.9092,1.10000,0.90000,1.10000,0.90000
    67,'BRUDERH7    ', 138.0000,1,  33,  99,  17,1.02147, -15.3998,1.10000,0.90000,1.10000,0.90000
    68,'N HOLDE7    ', 138.0000,1,  56,  99,  17,1.00217, -15.3187,1.10000,0.90000,1.10000,0.90000
    69,'IOL 738L    ', 138.0000,1,  60,  99,  17,1.00843, -16.2076,1.10000,0.90000,1.10000,0.90000
    70,'CAMROSE7    ', 138.0000,1,  31,  99,  17,0.97627, -18.3400,1.10000,0.90000,1.10000,0.90000
    71,'JARROW 8    ',  69.0000,1,  32,  99,  17,1.03075, -16.4820,1.10000,0.90000,1.10000,0.90000
    72,'JARROW 7    ', 138.0000,1,  32,  99,  17,1.01319, -16.4389,1.10000,0.90000,1.10000,0.90000
    73,'HARDIST7    ', 138.0000,1,  32,  99,  17,1.02507, -17.6725,1.10000,0.90000,1.10000,0.90000
    74,'METIS647    ', 138.0000,1,  37,  99,  17,1.03222, -15.0979,1.10000,0.90000,1.10000,0.90000
    75,'HUGHEND7    ', 138.0000,1,  37,  99,  17,1.02369, -16.5943,1.10000,0.90000,1.10000,0.90000
    76,'IPPL ST7    ', 138.0000,1,  56,  99,  17,1.05042,  -9.0525,1.10000,0.90000,1.10000,0.90000
    77,'WAINWRI8    ',  69.0000,1,  32,  99,  17,1.03141, -16.6015,1.10000,0.90000,1.10000,0.90000
    78,'SEDGEWI7    ', 138.0000,1,  32,  99,  17,1.02923, -13.4667,1.10000,0.90000,1.10000,0.90000
    79,'BUFFALO7    ', 138.0000,1,  32,  99,  17,1.00059, -19.1390,1.10000,0.90000,1.10000,0.90000
    80,'BUCKLAK7    ', 138.0000,1,  30,  99,  17,1.00995, -14.0653,1.10000,0.90000,1.10000,0.90000
    81,'BIGSTON4    ', 240.0000,1,  31,  99,  17,1.00292, -13.6433,1.10000,0.90000,1.10000,0.90000
    82,'CHEVRON7    ', 138.0000,1,  24,  99,  17,1.01814, -16.3887,1.10000,0.90000,1.10000,0.90000
    83,'RBCUPIL7    ', 138.0000,1,  17,  99,  21,1.07668, -10.2955,1.10000,0.90000,1.10000,0.90000
    85,'MILLAR 7    ', 138.0000,1,  26,  99,  17,1.00654, -15.6620,1.10000,0.90000,1.10000,0.90000
    86,'PROVOST7    ', 138.0000,1,  37,  99,  17,1.02072, -15.5529,1.10000,0.90000,1.10000,0.90000
    87,'METIS644    ', 240.0000,1,  37,  99,  17,1.05996, -11.6121,1.10000,0.90000,1.10000,0.90000
    88,'BICKERD7    ', 138.0000,1,  29,  99,  17,1.03199, -13.1947,1.10000,0.90000,1.10000,0.90000
    89,'E EDMON7    ', 138.0000,1,  60,  99,  17,1.01540, -15.7950,1.10000,0.90000,1.10000,0.90000
    90,'BICKERD4    ', 240.0000,1,  29,  99,  17,1.08340, -11.3447,1.10000,0.90000,1.10000,0.90000
    91,'NISKU  7    ', 138.0000,1,  60,  99,  17,0.98509, -18.6965,1.10000,0.90000,1.10000,0.90000
    93,'WETASKI7    ', 138.0000,1,  31,  99,  17,1.00414, -18.3041,1.10000,0.90000,1.10000,0.90000
    94,'ERVICK 7    ', 138.0000,1,  31,  99,  17,0.97950, -18.5052,1.10000,0.90000,1.10000,0.90000
    95,'PONOKA 7    ', 138.0000,1,  31,  99,  17,0.98733, -19.5634,1.10000,0.90000,1.10000,0.90000
    96,'DEVON  7    ', 138.0000,1,  60,  99,  17,0.97745, -18.6493,1.10000,0.90000,1.10000,0.90000
    97,'ECKVILL7    ', 138.0000,1,  35,  99,  17,1.01297, -18.7948,1.10000,0.90000,1.10000,0.90000
    98,'RIMBEY 7    ', 138.0000,1,  35,  99,  17,0.99726, -19.4135,1.10000,0.90000,1.10000,0.90000
    99,'BENALTO7    ', 138.0000,1,  35,  99,  17,1.02338, -18.3608,1.10000,0.90000,1.10000,0.90000
   100,'ROCKY M7    ', 138.0000,1,  38,  99,  17,0.99100, -19.8343,1.10000,0.90000,1.10000,0.90000
   101,'COOKING7    ', 138.0000,1,  60,  99,  17,0.99187, -16.8604,1.10000,0.90000,1.10000,0.90000
   102,'BIGHORN1    ',  13.8000,2,  34,  99,  17,0.97300, -12.5774,1.10000,0.90000,1.10000,0.90000
   103,'BIG HOR7    ', 138.0000,1,  34,  99,  17,0.99670, -13.3257,1.10000,0.90000,1.10000,0.90000
   104,'STRACHA7    ', 138.0000,1,  38,  99,  17,0.99505, -19.5909,1.10000,0.90000,1.10000,0.90000
   105,'PIGEON 7    ', 138.0000,1,  31,  99,  17,0.99860, -18.2796,1.10000,0.90000,1.10000,0.90000
   106,'DEERLAN7    ', 138.0000,1,  33,  99,  17,1.02025, -15.1796,1.10000,0.90000,1.10000,0.90000
   107,'SUNDRE 7    ', 138.0000,1,  38,  99,  17,0.96611, -22.8141,1.10000,0.90000,1.10000,0.90000
   108,'BIGHORN2    ',  13.8000,2,  34,  99,  17,0.97200,  -5.4225,1.10000,0.90000,1.10000,0.90000
   109,'DEERLAN4    ', 240.0000,1,  33,  99,  17,1.06477, -14.1209,1.10000,0.90000,1.10000,0.90000
   110,'IPL EDM7    ', 138.0000,1,  60,  99,  17,1.01470, -15.8322,1.10000,0.90000,1.10000,0.90000
   111,'SANDHIL7    ', 138.0000,1,  48,  99,  17,1.02511, -16.8544,1.10000,0.90000,1.10000,0.90000
   112,'SUNKEN7     ', 138.0000,1,  37,  99,  17,1.03206, -15.1190,1.10000,0.90000,1.10000,0.90000
   113,'BLACKFA7    ', 138.0000,1,  35,  99,  17,1.00244, -19.3121,1.10000,0.90000,1.10000,0.90000
   114,'LACOMBE7    ', 138.0000,1,  35,  99,  17,0.99252, -19.6261,1.10000,0.90000,1.10000,0.90000
   115,'S RED DE    ', 138.0000,1,  35,  99,  17,1.01463, -18.7530,1.10000,0.90000,1.10000,0.90000
   116,'W LACOMB    ', 138.0000,1,  35,  99,  17,0.99566, -19.5089,1.10000,0.90000,1.10000,0.90000
   117,'RED DE A    ', 138.0000,1,  35,  99,  17,1.01597, -18.5824,1.10000,0.90000,1.10000,0.90000
   118,'RED DE B    ', 138.0000,1,  35,  99,  17,1.01597, -18.5824,1.10000,0.90000,1.10000,0.90000
   119,'N RED D7    ', 138.0000,1,  35,  99,  17,1.01732, -18.7564,1.10000,0.90000,1.10000,0.90000
   120,'INNISFA7    ', 138.0000,1,  39,  99,  17,0.99253, -20.8822,1.10000,0.90000,1.10000,0.90000
   121,'OLDS   7    ', 138.0000,1,  39,  99,  17,0.97297, -23.2012,1.10000,0.90000,1.10000,0.90000
   122,'MADDEN 7    ', 138.0000,1,  39,  99,  17,0.97629, -24.9230,1.10000,0.90000,1.10000,0.90000
   123,'DIDSBURY    ', 138.0000,1,  39,  99,  17,0.97551, -23.8583,1.10000,0.90000,1.10000,0.90000
   124,'HARMATT7    ', 138.0000,1,  39,  99,  17,0.97370, -23.7369,1.10000,0.90000,1.10000,0.90000
   125,'YASAA7      ', 138.0000,1,  60,  99,  17,1.01428, -15.8459,1.10000,0.90000,1.10000,0.90000
   126,'SHELL H7    ', 138.0000,1,  39,  99,  17,0.97396, -23.8435,1.10000,0.90000,1.10000,0.90000
   127,'BEDDING2    ', 138.0000,1,   6,  99,   3,1.02884, -23.4522,1.10000,0.90000,1.10000,0.90000
   128,'ELLERSLI    ', 240.0000,1,  60,  99,  17,1.02693, -10.5771,1.10000,0.90000,1.10000,0.90000
   130,'SUND#3GN    ',  20.0000,2,  40,  99,  17,1.00000,   0.8615,1.10000,0.90000,1.10000,0.90000
   131,'SUNDANA8    ',  69.0000,1,  40,  99,  17,1.00662,  -9.9335,1.10000,0.90000,1.10000,0.90000
   132,'SUNDANC7    ', 138.0000,1,  40,  99,  17,1.03043,  -7.7244,1.10000,0.90000,1.10000,0.90000
   133,'WABAMUN4    ', 240.0000,1,  40,  99,  17,1.06417,  -9.4969,1.10000,0.90000,1.10000,0.90000
   134,'WABAMUN7    ', 138.0000,1,  40,  99,  17,1.02626, -12.6240,1.10000,0.90000,1.10000,0.90000
   135,'SUNDANC4    ', 240.0000,1,  40,  99,  17,1.08139,  -7.5371,1.10000,0.90000,1.10000,0.90000
   136,'E EDMON4    ', 240.0000,1,  60,  99,  17,1.02007, -11.7564,1.10000,0.90000,1.10000,0.90000
   137,'N CALDE4    ', 240.0000,1,  60,  99,  17,1.03421, -13.2215,1.10000,0.90000,1.10000,0.90000
   138,'N BARRH4    ', 240.0000,1,  40,  99,  17,1.09506, -11.5807,1.10000,0.90000,1.10000,0.90000
   141,'DALEHUR7    ', 138.0000,1,  29,  99,  17,1.03658, -14.9173,1.10000,0.90000,1.10000,0.90000
   142,'KINGMAN7    ', 138.0000,1,  31,  99,  17,0.98424, -17.4899,1.10000,0.90000,1.10000,0.90000
   144,'ALGAR  7    ', 138.0000,1,  61,  99,   1,1.06977,  -9.6715,1.10000,0.90000,1.10000,0.90000
   147,'GAETZ  4    ', 240.0000,1,  35,  99,  17,1.01167, -16.1789,1.10000,0.90000,1.10000,0.90000
   148,'GAETZ  7    ', 138.0000,1,  35,  99,  17,1.02510, -18.3918,1.10000,0.90000,1.10000,0.90000
   150,'WILLESD4    ', 240.0000,1,  30,  99,  17,1.06262, -13.8589,1.10000,0.90000,1.10000,0.90000
   151,'BRAZ#1 9    ',  13.8000,2,  30,  99,  17,0.98000,  -9.1985,1.10000,0.90000,1.10000,0.90000
   152,'RED DEE4    ', 240.0000,1,  35,  99,  17,1.03061, -16.0369,1.10000,0.90000,1.10000,0.90000
   153,'BRAZEAU4    ', 240.0000,1,  30,  99,  17,1.06612, -13.3800,1.10000,0.90000,1.10000,0.90000
   154,'BRAZ#2 9    ',  13.8000,2,  30,  99,  17,0.99490, -13.3800,1.10000,0.90000,1.10000,0.90000
   155,'BENALTO4    ', 240.0000,1,  35,  99,  17,1.05346, -14.4263,1.10000,0.90000,1.10000,0.90000
   156,'E CROSS4    ', 240.0000,1,  57,  99,  17,1.03238, -19.0697,1.10000,0.90000,1.10000,0.90000
   157,'COCHIN 8    ',  69.0000,1,  32,  99, 241,1.03122, -16.6059,1.10000,0.90000,1.10000,0.90000
   158,'LANGDON2    ', 500.0000,1,   6,  99,  17,1.05311, -16.5895,1.10000,0.90000,1.10000,0.90000
   159,'LANGDON4    ', 240.0000,1,   6,  99,  17,1.05400, -18.7375,1.10000,0.90000,1.10000,0.90000
   160,'JANET  4    ', 240.0000,1,   6,  99,  17,1.04792, -20.5894,1.10000,0.90000,1.10000,0.90000
   161,'SARCEE 4    ', 240.0000,1,   6,  99,  17,1.03156, -22.5215,1.10000,0.90000,1.10000,0.90000
   162,'E CALGAR    ', 240.0000,1,   6,  99,  17,1.03793, -22.0741,1.10000,0.90000,1.10000,0.90000
   163,'SAGITAW4    ', 240.0000,1,  26,  99,  17,1.07473, -13.1263,1.10000,0.90000,1.10000,0.90000
   164,'SAGITAW7    ', 138.0000,1,  26,  99,  17,1.02641, -14.7708,1.10000,0.90000,1.10000,0.90000
   165,'PEIGAN 4    ', 240.0000,1,  53,  99, 191,1.03033, -19.1506,1.10000,0.90000,1.10000,0.90000
   166,'PEIGAN 7    ', 138.0000,1,  53,  99, 191,1.02943, -18.1865,1.10000,0.90000,1.10000,0.90000
   167,'N LETHB4    ', 240.0000,1,  54,  99,  17,1.02609, -19.8061,1.10000,0.90000,1.10000,0.90000
   168,'SUNSHIN8    ',  69.0000,1,  44,  99,  17,1.00447, -34.7409,1.10000,0.90000,1.10000,0.90000
   169,'CAN CEM7    ', 138.0000,1,  44,  99,  17,1.01460, -25.7840,1.10000,0.90000,1.10000,0.90000
   170,'COCHRAN7    ', 138.0000,1,  44,  99,  17,0.99853, -27.0451,1.10000,0.90000,1.10000,0.90000
   171,'SEEBE  7    ', 138.0000,1,  44,  99, 191,1.01644, -25.4853,1.10000,0.90000,1.10000,0.90000
   172,'HORS GEN    ',  12.0000,2,  44,  99,  17,1.02500, -23.8374,1.10000,0.90000,1.10000,0.90000
   173,'BRETV A7    ', 138.0000,1,  60,  99,  17,1.01386, -15.8658,1.10000,0.90000,1.10000,0.90000
   174,'SPRAY G1    ',  13.2000,2,  44,  99,  17,1.04663, -21.1084,1.10000,0.90000,1.10000,0.90000
   175,'CASCADE7    ', 138.0000,1,  44,  99, 194,1.00839, -26.1837,1.10000,0.90000,1.10000,0.90000
   176,'CASCADE9    ',  13.2000,2,  44,  99, 194,1.02463, -25.0507,1.10000,0.90000,1.10000,0.90000
   177,'AIRDRIE     ', 138.0000,1,  57,  99,  17,1.01670, -21.1334,1.10000,0.90000,1.10000,0.90000
   178,'BANFF  8    ',  69.0000,1,  44,  99,  17,1.01156, -34.4155,1.10000,0.90000,1.10000,0.90000
   179,'MARIANA7    ', 138.0000,1,  61,  99,   1,1.07207, -10.1230,1.10000,0.90000,1.10000,0.90000
   180,'GHOST  7    ', 138.0000,1,  44,  99,  17,1.00777, -25.9744,1.10000,0.90000,1.10000,0.90000
   181,'GHOST A9    ',  13.2000,2,  44,  99,  17,0.99992, -23.8752,1.10000,0.90000,1.10000,0.90000
   183,'BEARSPWB    ',  13.2000,2,  44,  99,  17,1.03737, -26.9129,1.10000,0.90000,1.10000,0.90000
   184,'BEARSPAW    ', 138.0000,1,  44,  99,  17,1.00375, -26.9969,1.10000,0.90000,1.10000,0.90000
   187,'BEDDING1    ', 240.0000,1,   6,  99,   3,1.03225, -20.6246,1.10000,0.90000,1.10000,0.90000
   188,'ANG COCA    ',  25.0000,1,  44,  99,  17,1.04205, -29.1659,1.10000,0.90000,1.10000,0.90000
   189,'ANG COCB    ',  13.8000,2,  44,  99,  17,0.99838, -29.2013,1.10000,0.90000,1.10000,0.90000
   190,'SPRAY G2    ',  13.2000,2,  44,  99,  17,1.01874, -25.4954,1.10000,0.90000,1.10000,0.90000
   191,'ANG COCH    ', 138.0000,1,  44,  99,  17,0.99818, -26.9542,1.10000,0.90000,1.10000,0.90000
   192,'NELSON L    ', 138.0000,1,  31,  99,  17,0.98266, -19.7750,1.10000,0.90000,1.10000,0.90000
   193,'KANANAS7    ', 138.0000,1,  44,  99,  17,1.01689, -25.4620,1.10000,0.90000,1.10000,0.90000
   194,'LAKE LO8    ',  69.0000,1,  44,  99,  17,0.95572, -35.5386,1.10000,0.90000,1.10000,0.90000
   195,'RUNDLE S    ', 138.0000,1,  44,  99,  17,1.01795, -25.6029,1.10000,0.90000,1.10000,0.90000
   196,'KANANAS9    ',  12.0000,2,  44,  99,  17,1.03074, -23.9259,1.10000,0.90000,1.10000,0.90000
   197,'RUNDLE G    ',  13.8000,2,  44,  99,  17,1.04761, -22.9132,1.10000,0.90000,1.10000,0.90000
   198,'BALZAC 7    ', 138.0000,1,   6,  99,  17,1.02918, -23.2653,1.10000,0.90000,1.10000,0.90000
   199,'SHELL J7    ', 138.0000,1,  44,  99,  17,1.00709, -26.2134,1.10000,0.90000,1.10000,0.90000
   201,'JUMPPND7    ', 138.0000,1,  44,  99,  17,1.01273, -25.9617,1.10000,0.90000,1.10000,0.90000
   202,'SARCEE 7    ', 138.0000,1,   6,  99,  17,1.01683, -26.1142,1.10000,0.90000,1.10000,0.90000
   203,'SARCEE C    ',  13.8000,1,   6,  99,  17,0.99021, -26.2334,1.10000,0.90000,1.10000,0.90000
   204,'MCMILLA4    ', 240.0000,1,  61,  99,   1,1.11260,  -9.5216,1.10000,0.90000,1.10000,0.90000
   205,'AMOCO R7    ', 138.0000,1,  38,  99,  17,0.97042, -21.8650,1.10000,0.90000,1.10000,0.90000
   207,'JANET  7    ', 138.0000,1,   6,  99,  17,1.01636, -24.6667,1.10000,0.90000,1.10000,0.90000
   208,'ENMX2S 7    ', 138.0000,1,   6,  99,   3,1.00691, -26.4923,1.10000,0.90000,1.10000,0.90000
   209,'BRETONA1    ', 138.0000,1,  60,  99,  17,1.00303, -16.3362,1.10000,0.90000,1.10000,0.90000
   211,'MOUNT A7    ', 138.0000,1,  44,  99,  17,1.01900, -25.5159,1.10000,0.90000,1.10000,0.90000
   213,'HAIGRIVE    ', 138.0000,1,  17,  99,   1,1.09228, -13.8632,1.10000,0.90000,1.10000,0.90000
   214,'POCATEA9    ',  13.8000,2,  44,  99,  17,1.03415, -20.9875,1.10000,0.90000,1.10000,0.90000
   215,'TEX.W.P7    ', 138.0000,1,  30,  99,  17,1.02113, -15.6734,1.10000,0.90000,1.10000,0.90000
   216,'BARRIER7    ', 138.0000,1,  44,  99,  17,1.01860, -25.4581,1.10000,0.90000,1.10000,0.90000
   218,'BLACKMUD    ', 138.0000,1,  60,  99,  17,0.98033, -18.8132,1.10000,0.90000,1.10000,0.90000
   219,'KILLARN7    ', 138.0000,1,  37,  99,  17,1.00832, -18.9127,1.10000,0.90000,1.10000,0.90000
   220,'HAYTER 7    ', 138.0000,1,  37,  99,  17,0.99298, -19.5408,1.10000,0.90000,1.10000,0.90000
   221,'CRR-W1      ', 240.0000,1,  53,  99,  58,1.02690, -18.7725,1.10000,0.90000,1.10000,0.90000
   222,'BARRIER9    ',  13.2000,2,  44,  99,  17,1.03000, -22.1389,1.10000,0.90000,1.10000,0.90000
   223,'PINCHER8    ',  69.0000,1,  53,  99,  17,1.02835, -19.1544,1.10000,0.90000,1.10000,0.90000
   224,'PINCHER7    ', 138.0000,1,  53,  99,  17,1.03940, -18.5053,1.10000,0.90000,1.10000,0.90000
   225,'WARE JCT    ', 240.0000,1,  47,  99,  17,1.07102, -11.3353,1.10000,0.90000,1.10000,0.90000
   226,'DRYWOOD8    ',  69.0000,1,  55,  99,  17,1.01992, -20.4004,1.10000,0.90000,1.10000,0.90000
   227,'SHELL WA    ',  69.0000,1,  55,  99,  17,1.00779, -20.6218,1.10000,0.90000,1.10000,0.90000
   228,'YARROW 8    ',  69.0000,1,  55,  99,  17,1.01963, -20.4084,1.10000,0.90000,1.10000,0.90000
...
0 / END OF BUS DATA, BEGIN LOAD DATA
     9,'99',1,  26,  99,     0.079,     0.039,     0.000,     0.000,     0.000,     0.000,  17,1,0
    14,'99',1,  27,  99,     0.051,     0.026,     0.000,     0.000,     0.000,     0.000,   4,1,0
    33,'99',1,  30,  99,     1.958,     0.979,     0.000,     0.000,     0.000,     0.000,  17,1,0
    43,'37',1,  33,  37,   243.580,   121.790,     0.000,     0.000,     0.000,     0.000,  29,1,0
    50,'37',1,  33,  37,    12.526,     6.263,     0.000,     0.000,     0.000,     0.000, 211,1,0
    50,'99',1,  33,  99,     9.387,     4.693,     0.000,     0.000,     0.000,     0.000, 211,1,0
    61,'37',1,  33,  37,    38.160,    19.080,     0.000,     0.000,     0.000,     0.000, 191,1,0
    61,'99',1,  33,  99,    28.025,    14.012,     0.000,     0.000,     0.000,     0.000, 191,1,0
    79,'99',1,  32,  99,     0.001,     0.000,     0.000,     0.000,     0.000,     0.000,  17,1,0
    80,'99',1,  30,  99,     0.919,     0.459,     0.000,     0.000,     0.000,     0.000,  17,1,0
   106,'99',1,  33,  99,     5.919,     2.959,     0.000,     0.000,     0.000,     0.000,  17,1,0
   127,'99',1,   6,  99,     7.397,     3.699,     0.000,     0.000,     0.000,     0.000,   3,1,0
   130,'36',1,  40,  36,    24.200,    12.100,     0.000,     0.000,     0.000,     0.000,  17,1,0
   167,'99',1,  54,  99,     0.002,     0.001,     0.000,     0.000,     0.000,     0.000,  17,1,0
   180,'99',1,  44,  99,     0.157,     0.079,     0.000,     0.000,     0.000,     0.000,  17,1,0
   183,'99',1,  44,  99,     0.020,     0.010,     0.000,     0.000,     0.000,     0.000,  17,1,0
   188,'99',1,  44,  99,    11.013,     5.506,     0.000,     0.000,     0.000,     0.000,  17,1,0
   189,'99',1,  44,  99,     6.444,     3.222,     0.000,     0.000,     0.000,     0.000,  17,1,0
   199,'99',1,  44,  99,     4.869,     2.435,     0.000,     0.000,     0.000,     0.000,  17,1,0
   214,'99',1,  44,  99,     0.012,     0.006,     0.000,     0.000,     0.000,     0.000,  17,1,0
   222,'99',1,  44,  99,     0.012,     0.006,     0.000,     0.000,     0.000,     0.000,  17,1,0
   234,'99',1,  53,  99,     0.340,     0.170,     0.000,     0.000,     0.000,     0.000,  44,1,0
   248,'37',1,  28,  37,    27.514,    13.757,     0.000,     0.000,     0.000,     0.000,  36,1,0
   255,'99',1,  53,  99,     0.083,     0.042,     0.000,     0.000,     0.000,     0.000,  17,1,0
   265,'99',1,  53,  99,     0.083,     0.042,     0.000,     0.000,     0.000,     0.000,  17,1,0
   268,'99',1,  48,  99,     6.366,     3.183,     0.000,     0.000,     0.000,     0.000,  17,1,0
   271,'99',1,   4,  99,     0.001,     0.000,     0.000,     0.000,     0.000,     0.000,  17,1,0
   274,'99',1,  52,  99,    10.052,     5.026,     0.000,     0.000,     0.000,     0.000,  17,1,0
   287,'99',1,  48,  99,     9.094,     4.547,     0.000,     0.000,     0.000,     0.000,  17,1,0
   288,'99',1,  48,  99,     4.547,     2.273,     0.000,     0.000,     0.000,     0.000,  17,1,0
   289,'99',1,  48,  99,     5.911,     2.955,     0.000,     0.000,     0.000,     0.000,  17,1,0
   296,'99',1,  53,  99,     0.007,     0.003,     0.000,     0.000,     0.000,     0.000,  17,1,0
   305,'99',1,  27,  99,     8.195,     4.097,     0.000,     0.000,     0.000,     0.000,  17,1,0
   342,'36',1,  40,  36,    26.700,    13.400,     0.000,     0.000,     0.000,     0.000,  17,1,0
   345,'36',1,  40,  36,    23.400,    11.700,     0.000,     0.000,     0.000,     0.000,  17,1,0
   348,'99',1,  61,  99,     0.460,     0.230,     0.000,     0.000,     0.000,     0.000,  17,1,0
   350,'36',1,  40,  36,    26.500,    13.200,     0.000,     0.000,     0.000,     0.000,  17,1,0
   380,'99',1,  44,  99,     0.665,     0.333,     0.000,     0.000,     0.000,     0.000,  17,1,0
   383,'37',1,  35,  37,    58.120,    29.060,     0.000,     0.000,     0.000,     0.000,  17,1,0
   383,'99',1,  35,  99,    76.336,    38.166,     0.000,     0.000,     0.000,     0.000,  17,1,0
   403,'36',1,  40,  36,    40.700,    20.400,     0.000,     0.000,     0.000,     0.000,  17,1,0
   405,'36',1,  61,  36,     0.500,     0.250,     0.000,     0.000,     0.000,     0.000, 251,1,0
   407,'99',1,  54,  99,     0.039,     0.020,     0.000,     0.000,     0.000,     0.000,  17,1,0
   408,'99',1,  26,  99,     0.099,     0.050,     0.000,     0.000,     0.000,     0.000,  17,1,0
   414,'99',1,  55,  99,     0.049,     0.024,     0.000,     0.000,     0.000,     0.000,  17,1,0
   422,'36',1,  40,  36,    20.900,    10.500,     0.000,     0.000,     0.000,     0.000,  17,1,0
   424,'36',1,  40,  36,    24.000,    12.000,     0.000,     0.000,     0.000,     0.000,  17,1,0
   440,'99',1,  31,  99,     0.014,     0.007,     0.000,     0.000,     0.000,     0.000,  17,1,0
   478,'99',1,  44,  99,    25.458,    12.729,     0.000,     0.000,     0.000,     0.000,  17,1,0
   490,'36',1,  40,  36,    29.500,    14.700,     0.000,     0.000,     0.000,     0.000,   5,1,0
   491,'36',1,  40,  36,    16.400,     8.200,     0.000,     0.000,     0.000,     0.000,   5,1,0
   492,'36',1,  40,  36,    15.200,     7.600,     0.000,     0.000,     0.000,     0.000,   5,1,0
   535,'99',1,  60,  99,     8.255,     4.127,     0.000,     0.000,     0.000,     0.000,   5,1,0
   589,'99',1,   6,  99,     6.340,     3.170,     0.000,     0.000,     0.000,     0.000,   3,1,0
   666,'99',1,  58,  99,     0.423,     0.212,     0.000,     0.000,     0.000,     0.000,   1,1,0
   680,'37',1,   4,  37,   126.342,    63.171,     0.000,     0.000,     0.000,     0.000,  17,1,0
  1029,'99',1,  17,  99,    11.876,     5.938,     0.000,     0.000,     0.000,     0.000,   1,1,0
  1031,'99',1,  17,  99,     6.636,     3.318,     0.000,     0.000,     0.000,     0.000,   1,1,0
  1032,'99',1,  17,  99,    16.417,     8.208,     0.000,     0.000,     0.000,     0.000,   1,1,0
  1035,'99',1,  17,  99,     0.122,     0.061,     0.000,     0.000,     0.000,     0.000,  21,1,0
  1037,'99',1,  17,  99,     0.015,     0.008,     0.000,     0.000,     0.000,     0.000,  21,1,0
  1050,'99',1,  19,  99,     2.580,     1.290,     0.000,     0.000,     0.000,     0.000,   1,1,0
  1089,'34',1,  19,  34,    27.000,    12.000,     0.000,     0.000,     0.000,     0.000,  33,1,0
  1101,'37',1,  20,  37,     6.168,     3.084,     0.000,     0.000,     0.000,     0.000,  30,1,0
  1146,'37',1,  20,  37,    14.108,     7.054,     0.000,     0.000,     0.000,     0.000,  39,1,0
  1148,'36',1,  22,  36,    13.800,     6.900,     0.000,     0.000,     0.000,     0.000,   1,1,0
  1167,'99',1,  23,  99,     0.025,     0.012,     0.000,     0.000,     0.000,     0.000,   1,1,0
  1168,'99',1,  23,  99,     0.033,     0.017,     0.000,     0.000,     0.000,     0.000,   1,1,0
  1171,'35',1,  23,  35,     7.198,     0.000,     0.000,     0.000,     0.000,     0.000,   1,1,0
  1171,'99',1,  23,  99,     0.332,     0.166,     0.000,     0.000,     0.000,     0.000,   1,1,0
  1173,'99',1,  23,  99,     0.332,     0.166,     0.000,     0.000,     0.000,     0.000,   1,1,0
  1205,'35',1,  59,  35,    15.330,     0.000,     0.000,     0.000,     0.000,     0.000,   9,1,0
  1205,'37',1,  59,  37,   376.157,   188.078,     0.000,     0.000,     0.000,     0.000,   9,1,0
  1208,'37',1,  59,  37,   329.074,   164.536,     0.000,     0.000,     0.000,     0.000,  10,1,0
  1231,'99',1,  21,  99,    11.644,     5.822,     0.000,     0.000,     0.000,     0.000,   1,1,0
  1232,'99',1,  21,  99,    11.644,     5.822,     0.000,     0.000,     0.000,     0.000,   1,1,0
  1236,'37',1,  59,  37,    27.359,    13.680,     0.000,     0.000,     0.000,     0.000,  40,1,0
  1236,'99',1,  59,  99,     0.423,     0.212,     0.000,     0.000,     0.000,     0.000,  40,1,0
  1241,'37',1,  61,  37,    89.145,    44.572,     0.000,     0.000,     0.000,     0.000,  99,1,0
  1251,'37',1,  58,  37,    75.808,    37.904,     0.000,     0.000,     0.000,     0.000, 261,1,0
  1262,'37',1,  58,  37,    22.400,    11.200,     0.000,     0.000,     0.000,     0.000, 261,1,0
  1274,'37',1,  58,  37,     9.724,     4.862,     0.000,     0.000,     0.000,     0.000,   1,1,0
  1289,'37',1,  59,  37,    72.129,    36.065,     0.000,     0.000,     0.000,     0.000, 481,1,0
  1301,'36',1,  28,  36,     2.600,     1.400,     0.000,     0.000,     0.000,     0.000,  63,1,0
  1301,'37',1,  28,  37,    38.783,    19.391,     0.000,     0.000,     0.000,     0.000,  63,1,0
  1301,'99',1,  28,  99,     4.741,     2.371,     0.000,     0.000,     0.000,     0.000,  63,1,0
  1302,'37',1,  28,  37,    78.631,    39.316,     0.000,     0.000,     0.000,     0.000,   1,1,0
  1383,'99',1,  13,  99,     3.466,     1.733,     0.000,     0.000,     0.000,     0.000,   1,1,0
  1471,'99',1,  42,  99,    10.281,     5.140,     0.000,     0.000,     0.000,     0.000,   1,1,0
  1473,'34',1,  48,  34,   -61.730,     0.000,     0.000,     0.000,     0.000,     0.000,   1,1,0
  1474,'99',1,  42,  99,     9.143,     4.572,     0.000,     0.000,     0.000,     0.000,   1,1,0
  1482,'36',1,  43,  36,    14.600,     7.300,     0.000,     0.000,     0.000,     0.000,   1,1,0
  1487,'36',1,  43,  36,    15.700,     7.800,     0.000,     0.000,     0.000,     0.000,   1,1,0
  1495,'36',1,  36,  36,     8.700,     4.400,     0.000,     0.000,     0.000,     0.000,   1,1,0
  1496,'36',1,  36,  36,    11.000,     5.500,     0.000,     0.000,     0.000,     0.000,   1,1,0
  1497,'36',1,  36,  36,    19.100,     9.600,     0.000,     0.000,     0.000,     0.000,   1,1,0
  1503,'34',1,  15,  34,    10.000,     3.300,     0.000,     0.000,     0.000,     0.000,   2,1,0
  1504,'34',1,  15,  34,    10.000,     3.300,     0.000,     0.000,     0.000,     0.000,   2,1,0
  1505,'34',1,  15,  34,    10.000,     3.300,     0.000,     0.000,     0.000,     0.000,   2,1,0
  1506,'34',1,  15,  34,    10.000,     3.300,     0.000,     0.000,     0.000,     0.000,   2,1,0
  1681,'99',1,  59,  99,    32.636,    16.318,     0.000,     0.000,     0.000,     0.000,  36,1,0
  1683,'99',1,  59,  99,     8.901,     4.450,     0.000,     0.000,     0.000,     0.000,  36,1,0
  1684,'99',1,  59,  99,    32.636,    16.318,     0.000,     0.000,     0.000,     0.000,  36,1,0
  2053,'99',1,  48,  99,     3.124,     1.562,     0.000,     0.000,     0.000,     0.000,  17,1,0
  2060,'99',1,  33,  99,    12.686,     6.343,     0.000,     0.000,     0.000,     0.000,  17,1,0
  2062,'99',1,  33,  99,     7.745,     3.872,     0.000,     0.000,     0.000,     0.000,  17,1,0
  2063,'99',1,  33,  99,     7.954,     3.977,     0.000,     0.000,     0.000,     0.000,  17,1,0
  2085,'99',1,  26,  99,    24.982,    12.490,     0.000,     0.000,     0.000,     0.000,  17,1,0
  2089,'99',1,  60,  99,    14.943,     7.471,     0.000,     0.000,     0.000,     0.000,  17,1,0
  2103,'99',1,  34,  99,     2.236,     1.118,     0.000,     0.000,     0.000,     0.000,  17,1,0
  2125,'99',1,  60,  99,     8.015,     4.007,     0.000,     0.000,     0.000,     0.000,  17,1,0
  2169,'99',1,  44,  99,     5.023,     2.511,     0.000,     0.000,     0.000,     0.000,  17,1,0
  2173,'99',1,  60,  99,     5.701,     2.851,     0.000,     0.000,     0.000,     0.000,  17,1,0
  2198,'99',1,   6,  99,    10.109,     5.054,     0.000,     0.000,     0.000,     0.000,  17,1,0
  2208,'99',1,   6,  99,    11.066,     5.533,     0.000,     0.000,     0.000,     0.000,   3,1,0
  2218,'99',1,  60,  99,    14.314,     7.157,     0.000,     0.000,     0.000,     0.000,  17,1,0
  2230,'35',1,  53,  35,     2.539,     0.000,     0.000,     0.000,     0.000,     0.000,   1,1,0
  2230,'99',1,  53,  99,     0.001,     0.000,     0.000,     0.000,     0.000,     0.000,   1,1,0
  2231,'99',1,  55,  99,     2.383,     1.192,     0.000,     0.000,     0.000,     0.000,  17,1,0
  2242,'99',1,  46,  99,    19.031,     9.515,     0.000,     0.000,     0.000,     0.000,  17,1,0
  2260,'99',1,  48,  99,    13.470,     6.735,     0.000,     0.000,     0.000,     0.000,  17,1,0
  2266,'99',1,  48,  99,     3.612,     1.806,     0.000,     0.000,     0.000,     0.000,  17,1,0
  2269,'99',1,  52,  99,     8.248,     4.124,     0.000,     0.000,     0.000,     0.000,  17,1,0
  2284,'99',1,   4,  99,     1.759,     0.880,     0.000,     0.000,     0.000,     0.000,  17,1,0
  2297,'99',1,  32,  99,    11.939,     5.970,     0.000,     0.000,     0.000,     0.000,  17,1,0
  2298,'99',1,  26,  99,    20.455,    10.227,     0.000,     0.000,     0.000,     0.000,  17,1,0
  2315,'99',1,  45,  99,     1.661,     0.830,     0.000,     0.000,     0.000,     0.000,  17,1,0
  2340,'99',1,  45,  99,     8.143,     4.071,     0.000,     0.000,     0.000,     0.000,  17,1,0
  2344,'99',1,  48,  99,     1.869,     0.935,     0.000,     0.000,     0.000,     0.000,  17,1,0
  2357,'99',1,  60,  99,    15.689,     7.844,     0.000,     0.000,     0.000,     0.000,  17,1,0
  2364,'99',1,  40,  99,    19.466,     9.733,     0.000,     0.000,     0.000,     0.000,  17,1,0
  2366,'99',1,  60,  99,    14.655,     7.327,     0.000,     0.000,     0.000,     0.000,  17,1,0
  2368,'99',1,  29,  99,     6.770,     3.385,     0.000,     0.000,     0.000,     0.000,  17,1,0
  2369,'99',1,  61,  99,    12.907,     6.453,     0.000,     0.000,     0.000,     0.000,  17,1,0
  2370,'99',1,  61,  99,    17.110,     8.555,     0.000,     0.000,     0.000,     0.000,  17,1,0
  2373,'99',1,  32,  99,     3.162,     1.581,     0.000,     0.000,     0.000,     0.000,  17,1,0
  2384,'99',1,  35,  99,    33.133,    16.566,     0.000,     0.000,     0.000,     0.000,  17,1,0
  2389,'99',1,  54,  99,     0.238,     0.119,     0.000,     0.000,     0.000,     0.000,  10,1,0
  2392,'37',1,  27,  37,    56.586,    28.293,     0.000,     0.000,     0.000,     0.000, 301,1,0
  2397,'99',1,  29,  99,    14.193,     7.097,     0.000,     0.000,     0.000,     0.000,  17,1,0
  2399,'99',1,  47,  99,    11.099,     5.550,     0.000,     0.000,     0.000,     0.000,  17,1,0
  2402,'99',1,  53,  99,     0.165,     0.083,     0.000,     0.000,     0.000,     0.000, 192,1,0
  2415,'99',1,  29,  99,     0.196,     0.098,     0.000,     0.000,     0.000,     0.000,  17,1,0
  2417,'99',1,  27,  99,    13.959,     6.979,     0.000,     0.000,     0.000,     0.000,  17,1,0
  2423,'99',1,  40,  99,     0.031,     0.015,     0.000,     0.000,     0.000,     0.000,  17,1,0
  2488,'99',1,  40,  99,     4.481,     2.240,     0.000,     0.000,     0.000,     0.000,  17,1,0
  2503,'99',1,  57,  99,     0.118,     0.059,     0.000,     0.000,     0.000,     0.000,   3,1,0
  2514,'99',1,  60,  99,     6.184,     3.092,     0.000,     0.000,     0.000,     0.000,   5,1,0
  2515,'99',1,  60,  99,    14.217,     7.108,     0.000,     0.000,     0.000,     0.000,  17,1,0
  2550,'99',1,   6,  99,    14.366,     7.183,     0.000,     0.000,     0.000,     0.000,   3,1,0
  2551,'99',1,   6,  99,    19.198,     9.599,     0.000,     0.000,     0.000,     0.000,   3,1,0
  2555,'99',1,   6,  99,    22.479,    11.239,     0.000,     0.000,     0.000,     0.000,   3,1,0
  2556,'99',1,   6,  99,     3.625,     1.812,     0.000,     0.000,     0.000,     0.000,   3,1,0
  2559,'99',1,   6,  99,     8.682,     4.341,     0.000,     0.000,     0.000,     0.000,   3,1,0
  2561,'99',1,   6,  99,    20.157,    10.078,     0.000,     0.000,     0.000,     0.000,   3,1,0
  2564,'99',1,   6,  99,     4.561,     2.281,     0.000,     0.000,     0.000,     0.000,   3,1,0
  2567,'99',1,   6,  99,    21.367,    10.683,     0.000,     0.000,     0.000,     0.000,   3,1,0
  2568,'99',1,   6,  99,     8.876,     4.438,     0.000,     0.000,     0.000,     0.000,   3,1,0
  2571,'99',1,   6,  99,     4.389,     2.194,     0.000,     0.000,     0.000,     0.000,   3,1,0
  2572,'99',1,   6,  99,    15.824,     7.912,     0.000,     0.000,     0.000,     0.000,   3,1,0
  2573,'99',1,   6,  99,     8.160,     4.080,     0.000,     0.000,     0.000,     0.000,   3,1,0
  2576,'99',1,   6,  99,    23.542,    11.771,     0.000,     0.000,     0.000,     0.000,   3,1,0
  2578,'99',1,   6,  99,     1.989,     0.995,     0.000,     0.000,     0.000,     0.000,   3,1,0
  2579,'99',1,   6,  99,    10.683,     5.341,     0.000,     0.000,     0.000,     0.000,   3,1,0
  2582,'99',1,   6,  99,     5.763,     2.881,     0.000,     0.000,     0.000,     0.000,   3,1,0
  2585,'99',1,   6,  99,    12.619,     6.309,     0.000,     0.000,     0.000,     0.000,   3,1,0
  2588,'99',1,   6,  99,    18.760,     9.380,     0.000,     0.000,     0.000,     0.000,   3,1,0
  2589,'99',1,   6,  99,    15.349,     7.674,     0.000,     0.000,     0.000,     0.000,   3,1,0
  2598,'99',1,   6,  99,    21.483,    10.741,     0.000,     0.000,     0.000,     0.000,   3,1,0
  2605,'99',1,  29,  99,     0.951,     0.476,     0.000,     0.000,     0.000,     0.000,  17,1,0
  2621,'99',1,  42,  99,     0.015,     0.008,     0.000,     0.000,     0.000,     0.000, 371,1,0
  2622,'99',1,  42,  99,     0.015,     0.008,     0.000,     0.000,     0.000,     0.000, 371,1,0
  2623,'99',1,  42,  99,     0.011,     0.006,     0.000,     0.000,     0.000,     0.000, 371,1,0
  2624,'99',1,  42,  99,     0.015,     0.008,     0.000,     0.000,     0.000,     0.000, 371,1,0
  2625,'99',1,  42,  99,     0.019,     0.009,     0.000,     0.000,     0.000,     0.000, 371,1,0
  2690,'99',1,  54,  99,    12.282,     6.141,     0.000,     0.000,     0.000,     0.000,  17,1,0
  2716,'99',1,  42,  99,     0.725,     0.362,     0.000,     0.000,     0.000,     0.000, 391,1,0
  2763,'99',1,  53,  99,     0.179,     0.090,     0.000,     0.000,     0.000,     0.000, 190,1,0
  2779,'99',1,  40,  99,     2.123,     1.062,     0.000,     0.000,     0.000,     0.000,  17,1,0
  2780,'99',1,  35,  99,     7.266,     3.633,     0.000,     0.000,     0.000,     0.000,  17,1,0
  2834,'99',1,  33,  99,    17.348,     8.674,     0.000,     0.000,     0.000,     0.000,  40,1,0
  2858,'99',1,  27,  99,     4.987,     2.494,     0.000,     0.000,     0.000,     0.000, 321,1,0
  2901,'99',1,  53,  99,     0.160,     0.080,     0.000,     0.000,     0.000,     0.000,  44,1,0
  2920,'99',1,  61,  99,     5.097,     2.549,     0.000,     0.000,     0.000,     0.000,  17,1,0
  2921,'99',1,  61,  99,     5.097,     2.549,     0.000,     0.000,     0.000,     0.000,  17,1,0
  2934,'99',1,  33,  99,    17.348,     8.674,     0.000,     0.000,     0.000,     0.000,  40,1,0
  3017,'99',1,  29,  99,    11.897,     5.948,     0.000,     0.000,     0.000,     0.000,  17,1,0
  3020,'99',1,  29,  99,    13.050,     6.525,     0.000,     0.000,     0.000,     0.000,  17,1,0
  3036,'99',1,  30,  99,     5.432,     2.716,     0.000,     0.000,     0.000,     0.000,  17,1,0
  3038,'99',1,  30,  99,     3.788,     1.894,     0.000,     0.000,     0.000,     0.000,  17,1,0
  3040,'99',1,  60,  99,    31.270,    15.634,     0.000,     0.000,     0.000,     0.000,  17,1,0
  3041,'99',1,  40,  99,    13.617,     6.808,     0.000,     0.000,     0.000,     0.000,  17,1,0
  3047,'99',1,  60,  99,    24.328,    12.164,     0.000,     0.000,     0.000,     0.000,  17,1,0
  3053,'99',1,  48,  99,     3.124,     1.562,     0.000,     0.000,     0.000,     0.000,  17,1,0
  3055,'99',1,  60,  99,     8.669,     4.334,     0.000,     0.000,     0.000,     0.000,  17,1,0
  3056,'99',1,  60,  99,     3.718,     1.859,     0.000,     0.000,     0.000,     0.000,  17,1,0
  3058,'99',1,  60,  99,    27.739,    13.869,     0.000,     0.000,     0.000,     0.000,  17,1,0
  3059,'99',1,  33,  99,    20.973,    10.486,     0.000,     0.000,     0.000,     0.000,  17,1,0
  3060,'99',1,  33,  99,    12.686,     6.343,     0.000,     0.000,     0.000,     0.000,  17,1,0
  3062,'99',1,  33,  99,     5.861,     2.931,     0.000,     0.000,     0.000,     0.000,  17,1,0
...
0 / END OF LOAD DATA, BEGIN FIXED SHUNT DATA
  1089,'1 ',0,     0.000,    36.000
0 / END OF FIXED SHUNT DATA, BEGIN GENERATOR DATA
    14,'1 ',    14.752,     0.748,     8.200,    -5.600,1.02500,     0,    21.000, 0.00000E+0, 1.30000E-1, 0.00000E+0, 0.00000E+0,1.00000,1,  100.0,    17.000,     6.000,   4,1.0000
    33,'1 ',     0.000,     0.000,     4.100,    -2.800,1.02200,     0,     9.300, 2.00000E-3, 2.10000E-1, 0.00000E+0, 0.00000E+0,1.00000,0,  100.0,     8.400,    -0.500,  17,1.0000
    33,'2 ',     0.000,     0.000,     4.100,    -2.800,1.02200,     0,     9.300, 2.00000E-3, 2.20000E-1, 0.00000E+0, 0.00000E+0,1.00000,0,  100.0,     8.400,    -0.500,  17,1.0000
    43,'1 ',     0.000,     0.000,     0.000,     0.000,1.08000,     0,     4.000, 0.00000E+0, 2.50000E-1, 0.00000E+0, 0.00000E+0,1.00000,1,  100.0,     0.000,    -4.000,  29,1.0000
    43,'2 ',     0.000,     0.000,     0.000,     0.000,1.08000,     0,     4.000, 0.00000E+0, 2.50000E-1, 0.00000E+0, 0.00000E+0,1.00000,1,  100.0,     0.000,    -4.000,  29,1.0000
    43,'3 ',     0.000,     0.000,     0.000,     0.000,1.08000,     0,     4.000, 0.00000E+0, 2.50000E-1, 0.00000E+0, 0.00000E+0,1.00000,1,  100.0,     0.000,    -4.000,  29,1.0000
    43,'4 ',     0.000,     0.000,     0.000,     0.000,1.08000,     0,     4.000, 0.00000E+0, 2.50000E-1, 0.00000E+0, 0.00000E+0,1.00000,1,  100.0,     0.000,    -4.000,  29,1.0000
    43,'G1',    96.000,    41.900,    41.900,   -28.400,1.08000,     0,    96.100, 1.66000E-3, 2.10000E-1, 0.00000E+0, 0.00000E+0,1.00000,1,  100.0,    96.000,     0.000,  29,1.0000
    43,'G2',     0.000,    -4.100,    -4.100,    -4.100,1.08000,     0,     9.000, 0.00000E+0, 1.67000E-1, 0.00000E+0, 0.00000E+0,1.00000,1,  100.0,     0.000,    -9.000,  29,1.0000
    43,'GT',    99.400,    48.100,    48.100,   -32.700,1.08000,     0,   110.400, 4.00000E-3, 2.19000E-1, 0.00000E+0, 0.00000E+0,1.00000,1,  100.0,    99.400,    20.000,  29,1.0000
    43,'M1',     0.000,     0.000,     0.000,     0.000,1.08000,     0,    12.800, 0.00000E+0, 3.20000E-1, 0.00000E+0, 0.00000E+0,1.00000,1,  100.0,     0.000,   -11.190,  29,1.0000
    43,'M2',     0.000,     0.000,     0.000,     0.000,1.08000,     0,    12.800, 0.00000E+0, 3.20000E-1, 0.00000E+0, 0.00000E+0,1.00000,1,  100.0,     0.000,   -11.190,  29,1.0000
    43,'M3',     0.000,     0.000,     0.000,     0.000,1.08000,     0,    12.800, 0.00000E+0, 3.20000E-1, 0.00000E+0, 0.00000E+0,1.00000,1,  100.0,     0.000,   -11.190,  29,1.0000
    43,'M4',     0.000,     0.000,     0.000,     0.000,1.08000,     0,    12.800, 0.00000E+0, 3.20000E-1, 0.00000E+0, 0.00000E+0,1.00000,1,  100.0,     0.000,   -11.190,  29,1.0000
    43,'M5',     0.000,     0.000,     0.000,     0.000,1.08000,     0,    12.800, 0.00000E+0, 3.20000E-1, 0.00000E+0, 0.00000E+0,1.00000,1,  100.0,     0.000,   -11.190,  29,1.0000
    43,'M6',     0.000,     0.000,     0.000,     0.000,1.08000,     0,    25.600, 0.00000E+0, 2.33000E-1, 0.00000E+0, 0.00000E+0,1.00000,1,  100.0,     0.000,   -25.600,  29,1.0000
    43,'ST',    49.174,    46.300,    46.300,   -31.400,1.08000,     0,   106.300, 3.84000E-3, 1.80000E-1, 0.00000E+0, 0.00000E+0,1.00000,1,  100.0,    95.700,    10.000,  29,1.0000
    50,'1 ',    33.718,    31.000,    31.000,   -21.100,1.03000,     0,    71.200, 0.00000E+0, 1.81000E-1, 0.00000E+0, 0.00000E+0,1.00000,1,  100.0,    64.100,    20.000, 211,1.0000
    61,'G1',    99.500,    48.200,    48.200,   -32.700,1.05000,     0,   110.600, 0.00000E+0, 3.00000E-1, 0.00000E+0, 0.00000E+0,1.00000,1,  100.0,    99.500,     0.000, 191,1.0000
    61,'G2',    41.203,    48.200,    48.200,   -32.700,1.05000,     0,   110.600, 0.00000E+0, 3.00000E-1, 0.00000E+0, 0.00000E+0,1.00000,1,  100.0,    99.500,     0.000, 191,1.0000
    61,'GT',    80.000,    42.300,    42.300,   -28.700,1.05000,     0,    97.000, 4.00000E-3, 2.00000E-1, 0.00000E+0, 0.00000E+0,1.00000,0,  100.0,    95.000,    17.000, 191,1.0000
    61,'M1',    -0.984,     0.000,     0.000,    -5.800,1.05000,     0,     9.900, 6.40000E-3, 1.98000E-1, 0.00000E+0, 0.00000E+0,1.00000,1,  100.0,     0.000,    -9.698, 191,1.0000
    61,'M2',    -1.229,     0.000,     0.000,     0.000,1.05000,     0,    12.500, 5.50000E-3, 2.50000E-1, 0.00000E+0, 0.00000E+0,1.00000,1,  100.0,     0.000,   -12.520, 191,1.0000
    61,'ST',    12.300,    23.800,    23.800,   -15.000,1.05000,     0,    50.600, 5.00000E-3, 2.00000E-1, 0.00000E+0, 0.00000E+0,1.00000,0,  100.0,    45.500,    12.000, 191,1.0000
   102,'1 ',     5.527,    -1.997,    28.600,   -19.400,0.97300,     0,    65.500, 1.95000E-3, 3.40000E-1, 0.00000E+0, 0.00000E+0,1.00000,1,  100.0,    60.000,     0.000,  17,1.0000
   108,'2 ',    60.000,    -0.447,    28.600,   -19.400,0.97200,     0,    65.500, 1.95000E-3, 3.40000E-1, 0.00000E+0, 0.00000E+0,1.00000,1,  100.0,    60.000,     0.000,  17,1.0000
   130,'3A',   345.439,    27.900,   188.900,  -128.200,1.00000,     0,   483.300, 5.10000E-3, 2.07000E-1, 0.00000E+0, 0.00000E+0,1.00000,1,  100.0,   395.000,   155.500,  17,1.0000
   151,'1 ',    82.688,    13.804,    80.200,   -54.400,0.98000,     0,   184.000, 2.00000E-3, 2.42000E-1, 0.00000E+0, 0.00000E+0,1.00000,1,  100.0,   160.000,     0.000,  17,1.0000
   154,'2 ',   150.000,    61.472,    90.200,   -61.200,0.98000,     0,   207.000, 2.00000E-3, 3.30000E-1, 0.00000E+0, 0.00000E+0,1.00000,0,  100.0,   190.000,    -3.100,  17,1.0000
   172,'1 ',     5.600,     2.418,     2.700,    -1.800,1.02500,     0,     6.300, 2.00000E-3, 2.00000E-1, 0.00000E+0, 0.00000E+0,1.00000,1,  100.0,     5.600,     0.000,  17,1.0000
   172,'2 ',     1.984,     0.857,     1.600,    -1.100,1.02500,     0,     3.800, 2.00000E-3, 2.00000E-1, 0.00000E+0, 0.00000E+0,1.00000,1,  100.0,     3.400,     0.000,  17,1.0000
   172,'3 ',     1.800,     0.536,     1.600,    -1.100,1.02500,     0,     3.800, 2.00000E-3, 2.00000E-1, 0.00000E+0, 0.00000E+0,1.00000,0,  100.0,     3.400,     0.000,  17,1.0000
   172,'4 ',     2.900,     0.864,     2.700,    -1.800,1.02500,     0,     6.300, 2.00000E-3, 2.00000E-1, 0.00000E+0, 0.00000E+0,1.00000,0,  100.0,     5.600,     0.000,  17,1.0000
   174,'1 ',    36.005,     0.965,    31.600,   -18.000,1.04663,     0,    54.600, 2.00000E-3, 2.20000E-1, 0.00000E+0, 0.00000E+0,1.00000,1,  100.0,    50.000,     0.000,  17,1.0000
   176,'1 ',     9.152,     8.700,     8.700,    -5.900,1.04775,     0,    20.000, 1.00000E-3, 2.50000E-1, 0.00000E+0, 0.00000E+0,1.00000,1,  100.0,    18.000,    -0.500, 194,1.0000
   176,'2 ',     4.700,     8.832,     9.600,    -5.800,1.04775,     0,    20.000, 1.00000E-3, 3.30000E-1, 0.00000E+0, 0.00000E+0,1.00000,0,  100.0,    18.000,    -2.000, 194,1.0000
   181,'2 ',    16.200,     7.800,     7.800,    -5.300,1.00000,     0,    15.000, 2.00000E-3, 1.70000E-1, 0.00000E+0, 0.00000E+0,1.00000,1,  100.0,    16.200,     0.000,  17,1.0000
   181,'3 ',     7.209,     8.700,     8.700,    -5.900,1.00000,     0,    15.000, 2.00000E-3, 1.70000E-1, 0.00000E+0, 0.00000E+0,1.00000,1,  100.0,    18.000,     0.000,  17,1.0000
   181,'4A',    10.200,     3.527,    12.800,    -8.700,1.00000,     0,    31.100, 1.00000E-3, 3.70000E-1, 0.00000E+0, 0.00000E+0,1.00000,0,  100.0,    26.500,    -0.500,  17,1.0000
   183,'1 ',     5.261,    -5.300,     7.800,    -5.300,1.01500,     0,    18.000, 2.00000E-3, 2.10000E-1, 0.00000E+0, 0.00000E+0,1.00000,1,  100.0,    17.400,     0.000,  17,1.0000
   189,'1 ',    -4.446,     0.000,     0.000,     0.000,1.00000,     0,    15.000, 0.00000E+0, 2.50000E-1, 0.00000E+0, 0.00000E+0,1.00000,1,  100.0,     0.000,   -15.000,  17,1.0000
   189,'2 ',    -4.446,     0.000,     0.000,     0.000,1.00000,     0,    15.000, 0.00000E+0, 2.50000E-1, 0.00000E+0, 0.00000E+0,1.00000,1,  100.0,     0.000,   -15.000,  17,1.0000
   190,'2A',    16.400,    -8.962,    27.100,   -18.400,1.00000,     0,    62.200, 1.00000E-3, 3.20000E-1, 0.00000E+0, 0.00000E+0,1.00000,0,  100.0,    56.000,     0.000,  17,1.0000
   196,'1 ',     5.000,     1.900,     1.900,    -1.300,1.04786,     0,     4.300, 2.00000E-3, 2.00000E-1, 0.00000E+0, 0.00000E+0,1.00000,1,  100.0,     5.000,     0.000,  17,1.0000
   196,'2 ',     2.349,     1.900,     1.900,    -1.300,1.04786,     0,     4.300, 2.00000E-3, 2.00000E-1, 0.00000E+0, 0.00000E+0,1.00000,1,  100.0,     5.000,     0.000,  17,1.0000
   196,'3 ',     5.800,     4.900,     4.900,    -3.300,1.04786,     0,    11.300, 2.00000E-3, 3.00000E-1, 0.00000E+0, 0.00000E+0,1.00000,0,  100.0,    10.000,     0.000,  17,1.0000
   197,'2 ',    12.321,     7.203,    15.300,   -10.400,1.04761,     0,    35.000, 2.00000E-3, 2.00000E-1, 0.00000E+0, 0.00000E+0,1.00000,1,  100.0,    33.000,    -1.000,  17,1.0000
   214,'1 ',     9.629,     6.286,     6.500,    -4.400,1.03415,     0,    15.000, 2.00000E-3, 1.60000E-1, 0.00000E+0, 0.00000E+0,1.00000,1,  100.0,    14.100,     0.000,  17,1.0000
   222,'1 ',     7.489,     3.870,     4.900,    -3.300,1.03000,     0,    11.300, 2.00000E-3, 2.50000E-1, 0.00000E+0, 0.00000E+0,1.00000,1,  100.0,    11.000,     0.000,  17,1.0000
   248,'1 ',   100.800,    21.211,    48.800,   -33.100,1.04000,     0,   112.000, 0.00000E+0, 2.27100E-1, 0.00000E+0, 0.00000E+0,1.00000,1,  100.0,   100.800,    16.000,  36,1.0000
   248,'2 ',    85.000,    17.887,    48.800,   -33.100,1.04000,     0,   112.000, 0.00000E+0, 2.27100E-1, 0.00000E+0, 0.00000E+0,1.00000,1,  100.0,   100.800,    16.000,  36,1.0000
   255,'1 ',     0.901,     0.000,     0.000,     0.000,1.02560,     0,    14.000, 3.00000E-1, 2.30000E-1, 0.00000E+0, 0.00000E+0,1.00000,1,  100.0,    11.300,     0.000,  17,1.0000
   265,'1 ',     0.519,     0.000,     0.000,     0.000,1.02551,     0,    13.800, 3.00000E-1, 2.30000E-1, 0.00000E+0, 0.00000E+0,1.00000,1,  100.0,    10.100,     0.000,  17,1.0000
   268,'1 ',    -4.707,     0.000,     0.000,     0.000,1.00000,     0,    22.400, 0.00000E+0, 1.60000E-1, 0.00000E+0, 0.00000E+0,1.00000,1,  100.0,     0.000,   -22.400,  17,1.0000
   268,'E1',    -0.471,    -0.235,     0.000,     0.000,1.00000,     0,     2.600, 0.00000E+0, 1.60000E-1, 0.00000E+0, 0.00000E+0,1.00000,0,  100.0,     0.000,    -2.600,  17,1.0000
   268,'F1',    -1.412,     0.000,     0.000,     0.000,1.00000,     0,     8.200, 0.00000E+0, 1.60000E-1, 0.00000E+0, 0.00000E+0,1.00000,1,  100.0,     0.000,    -8.200,  17,1.0000
   268,'F2',    -1.412,     0.000,     0.000,     0.000,1.00000,     0,     8.200, 0.00000E+0, 1.60000E-1, 0.00000E+0, 0.00000E+0,1.00000,1,  100.0,     0.000,    -8.200,  17,1.0000
   287,'1 ',   -12.255,     0.000,     0.000,     0.000,1.01747,     0,    22.400, 0.00000E+0, 1.60000E-1, 0.00000E+0, 0.00000E+0,1.00000,1,  100.0,     0.000,   -22.400,  17,1.0000
   287,'E2',    -0.645,     0.000,     0.000,     0.000,1.01747,     0,     2.600, 0.00000E+0, 1.60000E-1, 0.00000E+0, 0.00000E+0,1.00000,1,  100.0,     0.000,    -2.600,  17,1.0000
   288,'1 ',    -4.707,     0.000,     0.000,     0.000,1.00723,     0,    22.400, 0.00000E+0, 1.60000E-1, 0.00000E+0, 0.00000E+0,1.00000,1,  100.0,     0.000,   -22.400,  17,1.0000
   289,'1 ',    -3.765,     0.000,     0.000,     0.000,1.00747,     0,    18.700, 0.00000E+0, 2.11000E-1, 0.00000E+0, 0.00000E+0,1.00000,1,  100.0,     0.000,   -18.700,  17,1.0000
   289,'2 ',    -3.765,     0.000,     0.000,     0.000,1.00747,     0,    18.700, 0.00000E+0, 2.11000E-1, 0.00000E+0, 0.00000E+0,1.00000,1,  100.0,     0.000,   -18.700,  17,1.0000
   332,'1 ',     8.188,     0.664,     5.500,    -3.700,1.04763,     0,    12.500, 0.00000E+0, 1.30000E-1, 0.00000E+0, 0.00000E+0,1.00000,1,  100.0,    11.300,     0.000,   4,1.0000
   342,'4A',   385.652,    76.533,   181.000,  -123.000,1.00000,     0,   483.000, 2.00000E-3, 2.50000E-1, 0.00000E+0, 0.00000E+0,1.00000,1,  100.0,   430.000,   169.000,  17,1.0000
   345,'5A',   391.404,    53.227,   181.000,  -123.000,1.00000,     0,   483.700, 2.00000E-3, 2.50000E-1, 0.00000E+0, 0.00000E+0,1.00000,1,  100.0,   435.400,   150.000,  17,1.0000
   350,'6A',   402.355,    77.097,   210.000,   -50.000,1.00000,     0,   472.800, 2.00000E-3, 2.47000E-1, 0.00000E+0, 0.00000E+0,1.00000,1,  100.0,   425.000,   150.000,  17,1.0000
   377,'1 ',     3.343,    -1.451,     2.400,    -1.600,1.03085,     0,     5.600, 2.00000E-3, 2.00000E-1, 0.00000E+0, 0.00000E+0,1.00000,1,  100.0,     5.000,     0.000,  17,1.0000
   381,'1 ',     0.930,    -1.200,     1.700,    -1.200,1.04255,     0,     4.000, 2.00000E-3, 2.00000E-1, 0.00000E+0, 0.00000E+0,1.00000,1,  100.0,     3.600,     0.000,  17,1.0000
   383,'1 ',   158.000,    36.180,    48.000,   -37.000,1.01800,     0,   165.000, 7.40000E-3, 1.41000E-1, 0.00000E+0, 0.00000E+0,1.00000,1,  100.0,   158.000,    55.000,  17,1.0000
   383,'2 ',    69.717,    15.964,    53.000,   -47.000,1.01800,     0,   171.000, 7.40000E-3, 1.41000E-1, 0.00000E+0, 0.00000E+0,1.00000,1,  100.0,   163.000,    57.000,  17,1.0000
   383,'3 ',   125.000,    33.866,    35.000,   -43.000,1.01800,     0,   157.000, 7.50000E-3, 1.31000E-1, 0.00000E+0, 0.00000E+0,1.00000,0,  100.0,   133.000,    50.000,  17,1.0000
   403,'3 ',   472.840,   142.098,   310.400,   -99.900,1.06000,   610,   586.000, 4.00000E-3, 2.77000E-1, 0.00000E+0, 0.00000E+0,1.00000,1,  100.0,   498.000,   142.000,  17,1.0000
   405,'1 ',    82.500,   -24.700,    25.800,   -24.700,1.05000,     0,    93.900, 3.30000E-3, 1.60000E-1, 0.00000E+0, 0.00000E+0,1.00000,1,  100.0,    82.500,     8.000, 251,1.0000
   407,'1 ',     4.400,     3.561,     6.000,    -4.100,1.02756,     0,    13.800, 0.00000E+0, 2.30000E-1, 0.00000E+0, 0.00000E+0,1.00000,0,  100.0,    12.400,     0.000,  17,1.0000
   408,'1 ',    24.627,     9.452,    15.400,   -10.500,1.02671,     0,    35.300, 0.00000E+0, 1.80000E-1, 0.00000E+0, 0.00000E+0,1.00000,1,  100.0,    31.800,     0.000,  17,1.0000
   414,'1 ',     6.000,     0.926,    10.000,    -6.800,1.02000,     0,    22.800, 0.00000E+0, 2.40000E-1, 0.00000E+0, 0.00000E+0,1.00000,0,  100.0,    20.600,     0.000,  17,1.0000
   422,'1A',   333.183,    67.778,   208.000,  -110.000,1.03000,     0,   477.000, 5.07000E-3, 3.00000E-1, 0.00000E+0, 0.00000E+0,1.00000,1,  100.0,   415.000,   164.000,  17,1.0000
   424,'2A',   379.022,    74.427,   208.000,  -110.000,1.03000,     0,   477.000, 5.07000E-3, 3.00000E-1, 0.00000E+0, 0.00000E+0,1.00000,1,  100.0,   415.000,   199.000,  17,1.0000
   450,'1 ',     0.000,     0.000,     2.400,    -1.600,1.04788,     0,     7.000, 0.00000E+0, 2.00000E-1, 0.00000E+0, 0.00000E+0,1.00000,0,  100.0,     6.300,     0.000,  17,1.0000
   479,'1 ',     3.500,     8.700,     8.700,    -5.900,1.04761,     0,    20.000, 2.00000E-3, 2.50000E-1, 0.00000E+0, 0.00000E+0,1.00000,0,  100.0,    18.000,    -1.000,  17,1.0000
   490,'3 ',   335.242,   155.820,   255.400,  -173.300,1.04000,     0,   586.000, 1.89000E-3, 2.77000E-1, 0.00000E+0, 0.00000E+0,1.00000,1,  100.0,   527.400,   142.000,   5,1.0000
   491,'1 ',   422.000,   138.400,   138.400,   -34.400,1.04000,     0,   482.400, 1.89000E-3, 2.50000E-1, 0.00000E+0, 0.00000E+0,1.00000,1,  100.0,   422.000,   123.600,   5,1.0000
   492,'2A',   422.000,   135.395,   208.000,  -112.000,1.04000,     0,   482.400, 1.85000E-3, 2.50000E-1, 0.00000E+0, 0.00000E+0,1.00000,1,  100.0,   422.000,   200.000,   5,1.0000
   680,'1 ',    56.300,     5.230,    27.200,   -18.500,1.02000,     0,    62.500, 0.00000E+0, 2.10000E-1, 0.00000E+0, 0.00000E+0,1.00000,1,  100.0,    56.300,     0.000,  17,1.0000
   680,'10',    31.900,     2.963,    15.400,   -10.500,1.02000,     0,    35.400, 0.00000E+0, 2.20000E-1, 0.00000E+0, 0.00000E+0,1.00000,1,  100.0,    31.900,    12.000,  17,1.0000
   680,'11',    31.900,     2.963,    15.400,   -10.500,1.02000,     0,    35.400, 0.00000E+0, 2.20000E-1, 0.00000E+0, 0.00000E+0,1.00000,1,  100.0,    31.900,    12.000,  17,1.0000
   680,'12',    38.300,     3.558,    18.600,   -12.600,1.02000,     0,    42.600, 0.00000E+0, 1.60000E-1, 0.00000E+0, 0.00000E+0,1.00000,1,  100.0,    38.300,     4.000,  17,1.0000
   680,'14',    27.724,     2.575,    27.700,   -12.600,1.02000,     0,    67.500, 1.40000E-3, 1.90000E-1, 0.00000E+0, 0.00000E+0,1.00000,1,  100.0,    45.000,    17.000,  17,1.0000
   680,'15',    35.000,    -0.380,    22.000,   -14.100,1.02000,     0,    71.200, 5.30000E-3, 1.44000E-1, 0.00000E+0, 0.00000E+0,1.00000,0,  100.0,    43.000,    17.000,  17,1.0000
   680,'3 ',    30.000,    -0.325,    18.500,   -12.600,1.02000,     0,    42.600, 0.00000E+0, 1.60000E-1, 0.00000E+0, 0.00000E+0,1.00000,0,  100.0,    38.300,     4.000,  17,1.0000
   680,'9 ',     0.000,     0.000,    19.600,   -13.300,1.02000,     0,    44.900, 0.00000E+0, 2.60000E-1, 0.00000E+0, 0.00000E+0,1.00000,0,  100.0,    40.400,     0.000,  17,1.0000
  1031,'1 ',     0.000,     0.000,    13.900,    -9.500,1.02000,     0,    32.000, 3.50000E-3, 7.00000E-2, 0.00000E+0, 0.00000E+0,1.00000,0,  100.0,    28.800,     4.000,   1,1.0000
  1032,'2 ',     9.132,     2.973,    25.000,   -18.000,1.06800,     0,    49.000, 7.20000E-3, 1.45000E-1, 0.00000E+0, 0.00000E+0,1.00000,1,  100.0,    44.100,     4.000,   1,1.0000
  1033,'3 ',     0.000,     0.000,     9.500,    -6.400,1.02000,     0,    21.700, 4.50000E-3, 9.00000E-2, 0.00000E+0, 0.00000E+0,1.00000,0,  100.0,    19.500,     3.000,   1,1.0000
  1035,'4 ',    41.930,   -17.300,    25.500,   -17.300,1.02000,     0,    58.600, 1.40000E-3, 1.62000E-1, 0.00000E+0, 0.00000E+0,1.00000,1,  100.0,    52.700,     9.000,  21,1.0000
  1037,'5 ',    38.863,     3.976,    25.500,   -17.300,1.07000,     0,    60.000, 1.40000E-3, 1.98000E-1, 0.00000E+0, 0.00000E+0,1.00000,1,  100.0,    52.700,     2.000,  21,1.0000
  1087,'2 ',     5.000,    -9.200,    13.400,    -9.200,1.00000,     0,    29.500, 6.00000E-3, 1.40000E-1, 0.00000E+0, 0.00000E+0,1.00000,0,  100.0,    25.100,     5.000,  33,1.0000
  1089,'1A',    29.988,    10.079,    20.500,   -13.900,1.00000,     0,    47.100, 9.30000E-3, 1.88000E-1, 0.00000E+0, 0.00000E+0,1.00000,1,  100.0,    40.000,     2.270,  33,1.0000
  1101,'2 ',    13.683,    -9.500,    13.900,    -9.500,1.05000,     0,    32.000, 3.10000E-3, 1.98000E-1, 0.00000E+0, 0.00000E+0,1.00000,1,  100.0,    28.800,     0.000,  30,1.0000
  1146,'1A',    14.150,   -16.200,    30.000,   -16.200,1.01000,     0,    57.900, 0.00000E+0, 1.55000E-1, 0.00000E+0, 0.00000E+0,1.00000,1,  100.0,    49.200,    10.000,  39,1.0000
  1148,'1 ',   118.794,   -24.287,    72.600,   -49.300,1.02600,     0,   167.000, 3.00000E-3, 1.85000E-1, 0.00000E+0, 0.00000E+0,1.00000,1,  100.0,   151.100,     0.000,   1,1.0000
  1167,'1 ',     0.000,     0.000,     5.400,    -3.700,1.03000,     0,    12.500, 4.50000E-3, 1.68000E-1, 0.00000E+0, 0.00000E+0,1.00000,0,  100.0,    11.300,     0.750,   1,1.0000
  1168,'2 ',     0.000,     0.000,     4.100,    -3.700,1.00000,     0,     9.400, 5.00000E-3, 1.68000E-1, 0.00000E+0, 0.00000E+0,1.00000,0,  100.0,     8.400,     0.750,   1,1.0000
  1171,'1 ',     9.000,   -17.300,    25.500,   -17.300,1.02000,     0,    60.000, 1.40000E-3, 1.98000E-1, 0.00000E+0, 0.00000E+0,1.00000,1,  100.0,    52.700,     9.000,   1,1.0000
  1173,'2 ',     3.314,   -17.300,    25.500,   -17.300,1.00000,     0,    72.000, 5.00000E-4, 1.60000E-1, 0.00000E+0, 0.00000E+0,1.00000,1,  100.0,    52.700,     2.000,   1,1.0000
  1205,'1 ',   100.000,    32.319,    44.800,   -30.400,1.10000,     0,   102.800, 4.00000E-3, 2.30000E-1, 0.00000E+0, 0.00000E+0,1.00000,1,  100.0,   100.000,    16.450,   9,1.0000
  1205,'11',    22.000,     7.110,    27.000,   -13.000,1.10000,     0,    33.800, 4.50000E-3, 1.47000E-1, 0.00000E+0, 0.00000E+0,1.00000,1,  100.0,    22.000,     2.000,   9,1.0000
  1205,'12',    86.000,    27.795,    39.700,   -30.000,1.10000,     0,    93.800, 3.40000E-3, 1.36000E-1, 0.00000E+0, 0.00000E+0,1.00000,1,  100.0,    86.000,    23.000,   9,1.0000
  1205,'15',     0.000,     0.000,     0.000,     0.000,1.10000,     0,    10.000, 0.00000E+0, 2.75000E-1, 0.00000E+0, 0.00000E+0,1.00000,1,  100.0,     0.000,    -8.000,   9,1.0000
  1205,'16',     0.000,     0.000,     0.000,     0.000,1.10000,     0,    10.000, 0.00000E+0, 2.75000E-1, 0.00000E+0, 0.00000E+0,1.00000,1,  100.0,     0.000,   -10.000,   9,1.0000
...